* RC FIlter
V1 vin 0 AC 1
R1 vin vout 1k
C1 vout 0 1.59u
* .tran 100m 10u
.ac dec 41 10 100k
.end
